<?xml version="1.0" encoding="UTF-8"?>

<!-- generated on 2021-05-25 11:10:07 by Eclipse SUMO netedit Version v1_9_1+0311-5b334a151b
<configuration xmlns:xsi="http://www.w3.org/2001/XMLSchema-instance" xsi:noNamespaceSchemaLocation="http://sumo.dlr.de/xsd/netconvertConfiguration.xsd">

    <input>
        <sumo-net-file value="straight.net.xml"/>
    </input>

    <output>
        <output-file value="straight.net.xml"/>
    </output>

    <processing>
        <geometry.min-radius.fix.railways value="false"/>
        <geometry.max-grade.fix value="false"/>
        <offset.disable-normalization value="true"/>
        <lefthand value="false"/>
    </processing>

    <junctions>
        <no-turnarounds value="true"/>
        <junctions.corner-detail value="5"/>
        <junctions.limit-turn-speed value="5.5"/>
        <rectangular-lane-cut value="false"/>
    </junctions>

    <pedestrian>
        <walkingareas value="false"/>
    </pedestrian>

    <report>
        <aggregate-warnings value="5"/>
    </report>

</configuration>
-->

<net version="1.9" junctionCornerDetail="5" limitTurnSpeed="5.50" xmlns:xsi="http://www.w3.org/2001/XMLSchema-instance" xsi:noNamespaceSchemaLocation="http://sumo.dlr.de/xsd/net_file.xsd">

    <location netOffset="250.00,-250.00" convBoundary="0.00,0.00,801.00,0.00" origBoundary="-250.00,250.00,551.00,250.00" projParameter="!"/>

    <edge id=":2_0" function="internal">
        <lane id=":2_0_0" index="0" speed="13.89" length="0.10" shape="800.00,-11.20 800.00,-11.20"/>
        <lane id=":2_0_1" index="1" speed="13.89" length="0.10" shape="800.00,-8.00 800.00,-8.00"/>
        <lane id=":2_0_2" index="2" speed="13.89" length="0.10" shape="800.00,-4.80 800.00,-4.80"/>
        <lane id=":2_0_3" index="3" speed="13.89" length="0.10" shape="800.00,-1.60 800.00,-1.60"/>
    </edge>

    <edge id="1to2" from="1" to="2" priority="-1">
        <lane id="1to2_0" index="0" speed="13.89" length="800.00" shape="0.00,-11.20 800.00,-11.20"/>
        <lane id="1to2_1" index="1" speed="13.89" length="800.00" shape="0.00,-8.00 800.00,-8.00"/>
        <lane id="1to2_2" index="2" speed="13.89" length="800.00" shape="0.00,-4.80 800.00,-4.80"/>
        <lane id="1to2_3" index="3" speed="13.89" length="800.00" shape="0.00,-1.60 800.00,-1.60"/>
    </edge>
    <edge id="out" from="2" to="3" priority="-1">
        <lane id="out_0" index="0" speed="13.89" length="1.00" shape="800.00,-11.20 801.00,-11.20"/>
        <lane id="out_1" index="1" speed="13.89" length="1.00" shape="800.00,-8.00 801.00,-8.00"/>
        <lane id="out_2" index="2" speed="13.89" length="1.00" shape="800.00,-4.80 801.00,-4.80"/>
        <lane id="out_3" index="3" speed="13.89" length="1.00" shape="800.00,-1.60 801.00,-1.60"/>
    </edge>

    <junction id="1" type="dead_end" x="0.00" y="0.00" incLanes="" intLanes="" shape="0.00,0.00 0.00,-12.80"/>
    <junction id="2" type="priority" x="800.00" y="0.00" incLanes="1to2_0 1to2_1 1to2_2 1to2_3" intLanes=":2_0_0 :2_0_1 :2_0_2 :2_0_3" shape="800.00,0.00 800.00,-12.80 800.00,0.00">
        <request index="0" response="0000" foes="0000" cont="0"/>
        <request index="1" response="0000" foes="0000" cont="0"/>
        <request index="2" response="0000" foes="0000" cont="0"/>
        <request index="3" response="0000" foes="0000" cont="0"/>
    </junction>
    <junction id="3" type="dead_end" x="801.00" y="0.00" incLanes="out_0 out_1 out_2 out_3" intLanes="" shape="801.00,-12.80 801.00,0.00"/>

    <connection from="1to2" to="out" fromLane="0" toLane="0" via=":2_0_0" dir="s" state="M"/>
    <connection from="1to2" to="out" fromLane="1" toLane="1" via=":2_0_1" dir="s" state="M"/>
    <connection from="1to2" to="out" fromLane="2" toLane="2" via=":2_0_2" dir="s" state="M"/>
    <connection from="1to2" to="out" fromLane="3" toLane="3" via=":2_0_3" dir="s" state="M"/>

    <connection from=":2_0" to="out" fromLane="0" toLane="0" dir="s" state="M"/>
    <connection from=":2_0" to="out" fromLane="1" toLane="1" dir="s" state="M"/>
    <connection from=":2_0" to="out" fromLane="2" toLane="2" dir="s" state="M"/>
    <connection from=":2_0" to="out" fromLane="3" toLane="3" dir="s" state="M"/>

</net>
