<nodes>
	<node id='1' x='-250.0' y='250.0' />
	<node id='2' x='550.0' y='250.0' />
	<node id='3' x='551.0' y='250.0' />
</nodes>