[General]
network = Scenario
debug-on-errors = true
sim-time-limit = 2.5s
repeat = 500
#repeat = 1

*.node*.app[*].cmdenv-log-level = trace
**.cmdenv-log-level = off
cmdenv-log-prefix = "%t\t[%l] (%M)\t"
cmdenv-express-mode = true
cmdenv-autoflush = true
cmdenv-event-banners = false

# UDPBasicApp
*.node*.numApps = 1
*.node*.app[0].typename = "wireless.StaticApplication"
*.node*.app[0].interface = "wlan0"

# Simulation settings
*.beaconPeriod = 0.01
*.dataExchangeInterval = 0.05
*.nrPackets = 600
*.nrBytesPerPacket = 1600
*.mmwLoopTime = 0.05
*.txCount = ${N=1..4}
#*.txCount = 2
*.txDstCount = 5
*.txPacketLoss = 0.00
*.rxPacketLoss = 0.00

# Mobility
*.node*.mobility.typename = "inet.mobility.static.StationaryMobility"
*.node*.mobility.initFromDisplayString = true

# Ieee80211Interface
*.node*.wlan[0].opMode = "p"
*.node*.wlan[0].radio.typename = "Ieee80211DimensionalRadio"
*.node*.wlan[0].radio.bandName = "5.9 GHz"
*.node*.wlan[0].radio.channelNumber = 3
*.node*.wlan[0].radio.transmitter.power = 20mW
*.node*.wlan[0].radio.bandwidth = 10 MHz
*.node*.wlan[*].radio.antenna.mobility.typename = "AttachedMobility"
*.node*.wlan[*].radio.antenna.mobility.mobilityModule = "^.^.^.^.mobility"
*.node*.wlan[*].radio.antenna.mobility.offsetX = -2.5m
*.node*.wlan[*].radio.antenna.mobility.offsetZ = 1.5m
*.node*.wlan[*].radio.antenna.mobility.constraintAreaMinX = 0m
*.node*.wlan[*].radio.antenna.mobility.constraintAreaMaxX = 0m
*.node*.wlan[*].radio.antenna.mobility.constraintAreaMinY = 0m
*.node*.wlan[*].radio.antenna.mobility.constraintAreaMaxY = 0m
*.node*.wlan[*].radio.antenna.mobility.constraintAreaMinZ = 0m
*.node*.wlan[*].radio.antenna.mobility.constraintAreaMaxZ = 0m

# HostAutoConfigurator
*.node*.ipv4.configurator.typename = "HostAutoConfigurator"
*.node*.ipv4.configurator.interfaces = "wlan0"
*.node*.ipv4.configurator.mcastGroups = "224.0.0.1"